smartgridcomm_greensboro/SMARTDS_GSO_solar_extreme_batt_high_peak_opendss/uhs20_1247/uhs20_1247--udt9897/Lines.dss
New Line.l(r:p1ulv3506-udm6541) Units=km Length=0.0141748 bus1=udm6541.1.2 bus2=p1ulv3506.1.2 switch=n enabled=y phases=2 Linecode=1P_UG_AL_2/0_Converse_2

New Line.l(r:udm6541-udt1633lv) Units=km Length=0.00999442 bus1=udt1633lv.1.2 bus2=udm6541.1.2 switch=n enabled=y phases=2 Linecode=1P_UG_AL_2/0_Converse_2

New Line.l(r:p1ulv21910-udm6542) Units=km Length=0.00760253 bus1=udm6542.1.2 bus2=p1ulv21910.1.2 switch=n enabled=y phases=2 Linecode=1P_UG_AL_4/0_Sweetbriar_2

New Line.l(r:udm6542-udt1633lv) Units=km Length=0.00998203 bus1=udt1633lv.1.2 bus2=udm6542.1.2 switch=n enabled=y phases=2 Linecode=1P_UG_AL_4/0_Sweetbriar_2

New Line.l(r:p1ulv17976-udt1635lv) Units=km Length=0.0126705 bus1=udt1635lv.1.2 bus2=p1ulv17976.1.2 switch=n enabled=y phases=2 Linecode=1P_UG_AL_1/0_Brenau_2

New Line.l(r:p1ulv3508-udm6544) Units=km Length=0.0434448 bus1=udm6544.1.2 bus2=p1ulv3508.1.2 switch=n enabled=y phases=2 Linecode=1P_UG_AL_2/0_Converse_2

New Line.l(r:udm6544-udt1635lv) Units=km Length=0.013674400000000001 bus1=udt1635lv.1.2 bus2=udm6544.1.2 switch=n enabled=y phases=2 Linecode=1P_UG_AL_2/0_Converse_2

New Line.l(r:p1ulv17975-udm6546) Units=km Length=0.0131543 bus1=udm6546.1.2 bus2=p1ulv17975.1.2 switch=n enabled=y phases=2 Linecode=1P_UG_AL_1/0_Brenau_2

New Line.l(r:p1ulv22130-udm6546) Units=km Length=0.00325301 bus1=udm6546.1.2 bus2=p1ulv22130.1.2 switch=n enabled=y phases=2 Linecode=1P_UG_AL_4/0_Sweetbriar_2

New Line.l(r:p1ulv17974-udm6545) Units=km Length=0.0140149 bus1=udm6545.1.2 bus2=p1ulv17974.1.2 switch=n enabled=y phases=2 Linecode=1P_UG_AL_1/0_Brenau_2

New Line.l(r:udm6545-udm6546) Units=km Length=0.009812980000000002 bus1=udm6546.1.2 bus2=udm6545.1.2 switch=n enabled=y phases=2 Linecode=1P_UG_AL_1/0_Brenau_2

New Line.l(r:udm6546-udt1635lv) Units=km Length=0.009812980000000002 bus1=udt1635lv.1.2 bus2=udm6546.1.2 switch=n enabled=y phases=2 Linecode=1P_UG_AL_4/0_Sweetbriar_2

New Line.l(r:p1ulv3510-udt1637lv) Units=km Length=0.0116625 bus1=udt1637lv.1.2 bus2=p1ulv3510.1.2 switch=n enabled=y phases=2 Linecode=1P_UG_AL_1/0_Brenau_2

New Line.l(r:p1ulv13413-udt1642lv) Units=km Length=0.014405200000000002 bus1=udt1642lv.1.2 bus2=p1ulv13413.1.2 switch=n enabled=y phases=2 Linecode=1P_UG_AL_1/0_Brenau_2

New Line.l(r:p1ulv18526-udt1642lv) Units=km Length=0.0122326 bus1=udt1642lv.1.2 bus2=p1ulv18526.1.2 switch=n enabled=y phases=2 Linecode=1P_UG_AL_1/0_Brenau_2

New Line.l(r:p1ulv3515-udm6560) Units=km Length=0.0125654 bus1=udm6560.1.2 bus2=p1ulv3515.1.2 switch=n enabled=y phases=2 Linecode=1P_UG_AL_1/0_Brenau_2

New Line.l(r:p1ulv25165-udm6560) Units=km Length=0.0129431 bus1=udm6560.1.2 bus2=p1ulv25165.1.2 switch=n enabled=y phases=2 Linecode=1P_UG_AL_1/0_Brenau_2

New Line.l(r:udm6560-udt1642lv) Units=km Length=0.008560050000000001 bus1=udt1642lv.1.2 bus2=udm6560.1.2 switch=n enabled=y phases=2 Linecode=1P_UG_AL_4/0_Sweetbriar_2

New Line.l(r:p1ulv3516-udt1643lv) Units=km Length=0.0119663 bus1=udt1643lv.1.2 bus2=p1ulv3516.1.2 switch=n enabled=y phases=2 Linecode=1P_UG_AL_1/0_Brenau_2

New Line.l(r:p1ulv6269-udt1643lv) Units=km Length=0.0422389 bus1=udt1643lv.1.2 bus2=p1ulv6269.1.2 switch=n enabled=y phases=2 Linecode=1P_UG_AL_1/0_Brenau_2

New Line.l(r:p1ulv6271-udt1643lv) Units=km Length=0.0626953 bus1=udt1643lv.1.2 bus2=p1ulv6271.1.2 switch=n enabled=y phases=2 Linecode=1P_UG_AL_1/0_Brenau_2

New Line.l(r:p1ulv6272-udt1643lv) Units=km Length=0.0549883 bus1=udt1643lv.1.2 bus2=p1ulv6272.1.2 switch=n enabled=y phases=2 Linecode=1P_UG_AL_1/0_Brenau_2

New Line.l(r:p1ulv6273-udt1643lv) Units=km Length=0.0465952 bus1=udt1643lv.1.2 bus2=p1ulv6273.1.2 switch=n enabled=y phases=2 Linecode=1P_UG_AL_1/0_Brenau_2

New Line.l(r:p1ulv6270-udm6566) Units=km Length=0.0709578 bus1=udm6566.1.2 bus2=p1ulv6270.1.2 switch=n enabled=y phases=2 Linecode=1P_UG_AL_1/0_Brenau_2

New Line.l(r:udm6566-udt1643lv) Units=km Length=0.00857351 bus1=udt1643lv.1.2 bus2=udm6566.1.2 switch=n enabled=y phases=2 Linecode=1P_UG_AL_1/0_Brenau_2

New Line.l(r:p1ulv3518-udt1644lv) Units=km Length=0.0798893 bus1=udt1644lv.1.2 bus2=p1ulv3518.1.2 switch=n enabled=y phases=2 Linecode=1P_UG_AL_2/0_Converse_2

New Line.l(r:p1ulv6251-udt2845lv) Units=km Length=0.0266327 bus1=udt2845lv.1.2 bus2=p1ulv6251.1.2 switch=n enabled=y phases=2 Linecode=1P_UG_AL_1/0_Brenau_2

New Line.l(r:p1ulv6252-udt2845lv) Units=km Length=0.0203724 bus1=udt2845lv.1.2 bus2=p1ulv6252.1.2 switch=n enabled=y phases=2 Linecode=1P_UG_AL_1/0_Brenau_2

New Line.l(r:p1ulv6250-udm11386) Units=km Length=0.0322403 bus1=udm11386.1.2 bus2=p1ulv6250.1.2 switch=n enabled=y phases=2 Linecode=1P_UG_AL_1/0_Brenau_2

New Line.l(r:udm11386-udt2845lv) Units=km Length=0.00967478 bus1=udt2845lv.1.2 bus2=udm11386.1.2 switch=n enabled=y phases=2 Linecode=1P_UG_AL_1/0_Brenau_2

New Line.l(r:p1ulv6253-udm11389) Units=km Length=0.015184300000000001 bus1=udm11389.1.2 bus2=p1ulv6253.1.2 switch=n enabled=y phases=2 Linecode=1P_UG_AL_1/0_Brenau_2

New Line.l(r:p1ulv6254-udm11389) Units=km Length=0.0571967 bus1=udm11389.1.2 bus2=p1ulv6254.1.2 switch=n enabled=y phases=2 Linecode=1P_UG_AL_1/0_Brenau_2

New Line.l(r:p1ulv6255-udm11389) Units=km Length=0.0649963 bus1=udm11389.1.2 bus2=p1ulv6255.1.2 switch=n enabled=y phases=2 Linecode=1P_UG_AL_1/0_Brenau_2

New Line.l(r:p1ulv6256-udm11389) Units=km Length=0.0802381 bus1=udm11389.1.2 bus2=p1ulv6256.1.2 switch=n enabled=y phases=2 Linecode=1P_UG_AL_1/0_Brenau_2

New Line.l(r:udm11389-udt2845lv) Units=km Length=0.00968203 bus1=udt2845lv.1.2 bus2=udm11389.1.2 switch=n enabled=y phases=2 Linecode=1P_UG_AL_4/0_Sweetbriar_2

New Line.l(r:p1ulv6261-udt2846lv) Units=km Length=0.08588590000000002 bus1=udt2846lv.1.2 bus2=p1ulv6261.1.2 switch=n enabled=y phases=2 Linecode=1P_UG_AL_1/0_Brenau_2

New Line.l(r:p1ulv6263-udt2846lv) Units=km Length=0.0575629 bus1=udt2846lv.1.2 bus2=p1ulv6263.1.2 switch=n enabled=y phases=2 Linecode=1P_UG_AL_1/0_Brenau_2

New Line.l(r:p1ulv6264-udt2846lv) Units=km Length=0.0148018 bus1=udt2846lv.1.2 bus2=p1ulv6264.1.2 switch=n enabled=y phases=2 Linecode=1P_UG_AL_1/0_Brenau_2

New Line.l(r:p1ulv6260-udm11396) Units=km Length=0.0836977 bus1=udm11396.1.2 bus2=p1ulv6260.1.2 switch=n enabled=y phases=2 Linecode=1P_UG_AL_1/0_Brenau_2

New Line.l(r:p1ulv6265-udm11396) Units=km Length=0.0169037 bus1=udm11396.1.2 bus2=p1ulv6265.1.2 switch=n enabled=y phases=2 Linecode=1P_UG_AL_1/0_Brenau_2

New Line.l(r:p1ulv6266-udm11396) Units=km Length=0.0182343 bus1=udm11396.1.2 bus2=p1ulv6266.1.2 switch=n enabled=y phases=2 Linecode=1P_UG_AL_1/0_Brenau_2

New Line.l(r:p1ulv6267-udm11403) Units=km Length=0.0197085 bus1=udm11403.1.2 bus2=p1ulv6267.1.2 switch=n enabled=y phases=2 Linecode=1P_UG_AL_1/0_Brenau_2

New Line.l(r:p1ulv6268-udm11404) Units=km Length=0.03574050000000001 bus1=udm11404.1.2 bus2=p1ulv6268.1.2 switch=n enabled=y phases=2 Linecode=1P_UG_AL_1/0_Brenau_2

New Line.l(r:udm11403-udm11404) Units=km Length=0.0193568 bus1=udm11403.1.2 bus2=udm11404.1.2 switch=n enabled=y phases=2 Linecode=1P_UG_AL_1/0_Brenau_2

New Line.l(r:udm11396-udm11403) Units=km Length=0.00967478 bus1=udm11396.1.2 bus2=udm11403.1.2 switch=n enabled=y phases=2 Linecode=1P_UG_AL_1/0_Brenau_2

New Line.l(r:udm11396-udt2846lv) Units=km Length=0.00968447 bus1=udt2846lv.1.2 bus2=udm11396.1.2 switch=n enabled=y phases=2 Linecode=1P_UG_AL_4/0_Sweetbriar_2

New Line.l(r:p1ulv6262-udm11398) Units=km Length=0.0502254 bus1=udm11398.1.2 bus2=p1ulv6262.1.2 switch=n enabled=y phases=2 Linecode=1P_UG_AL_1/0_Brenau_2

New Line.l(r:p1ulv6259-udm11395) Units=km Length=0.0918065 bus1=udm11395.1.2 bus2=p1ulv6259.1.2 switch=n enabled=y phases=2 Linecode=1P_UG_AL_1/0_Brenau_2

New Line.l(r:p1ulv6257-udm11393) Units=km Length=0.0842406 bus1=udm11393.1.2 bus2=p1ulv6257.1.2 switch=n enabled=y phases=2 Linecode=1P_UG_AL_1/0_Brenau_2

New Line.l(r:p1ulv6258-udm11393) Units=km Length=0.0880271 bus1=udm11393.1.2 bus2=p1ulv6258.1.2 switch=n enabled=y phases=2 Linecode=1P_UG_AL_1/0_Brenau_2

New Line.l(r:udm11393-udm11395) Units=km Length=0.00967478 bus1=udm11395.1.2 bus2=udm11393.1.2 switch=n enabled=y phases=2 Linecode=1P_UG_AL_1/0_Brenau_2

New Line.l(r:udm11395-udm11398) Units=km Length=0.00968447 bus1=udm11398.1.2 bus2=udm11395.1.2 switch=n enabled=y phases=2 Linecode=1P_UG_AL_2/0_Converse_2

New Line.l(r:udm11398-udt2846lv) Units=km Length=0.009672330000000002 bus1=udt2846lv.1.2 bus2=udm11398.1.2 switch=n enabled=y phases=2 Linecode=1P_UG_AL_4/0_Sweetbriar_2

New Line.l(r:p1ulv11950-udt5419lv) Units=km Length=0.0188446 bus1=udt5419lv.1.2 bus2=p1ulv11950.1.2 switch=n enabled=y phases=2 Linecode=1P_UG_AL_1/0_Brenau_2

New Line.l(r:p1ulv31009-udm20368) Units=km Length=0.0196691 bus1=udm20368.1.2 bus2=p1ulv31009.1.2 switch=n enabled=y phases=2 Linecode=1P_UG_AL_1/0_Brenau_2

New Line.l(r:udm20368-udt5419lv) Units=km Length=0.00978146 bus1=udt5419lv.1.2 bus2=udm20368.1.2 switch=n enabled=y phases=2 Linecode=1P_UG_AL_1/0_Brenau_2

New Line.l(r:p1ulv11951-udm20369) Units=km Length=0.0152502 bus1=udm20369.1.2 bus2=p1ulv11951.1.2 switch=n enabled=y phases=2 Linecode=1P_UG_AL_1/0_Brenau_2

New Line.l(r:p1ulv34159-udm20371) Units=km Length=0.0198249 bus1=udm20371.1.2 bus2=p1ulv34159.1.2 switch=n enabled=y phases=2 Linecode=1P_UG_AL_1/0_Brenau_2

New Line.l(r:udm20369-udm20371) Units=km Length=0.0293224 bus1=udm20369.1.2 bus2=udm20371.1.2 switch=n enabled=y phases=2 Linecode=1P_UG_AL_1/0_Brenau_2

New Line.l(r:udm20369-udt5420lv) Units=km Length=0.00978146 bus1=udt5420lv.1.2 bus2=udm20369.1.2 switch=n enabled=y phases=2 Linecode=1P_UG_AL_1/0_Brenau_2

New Line.l(r:p1ulv11952-udm20370) Units=km Length=0.0198022 bus1=udm20370.1.2 bus2=p1ulv11952.1.2 switch=n enabled=y phases=2 Linecode=1P_UG_AL_1/0_Brenau_2

New Line.l(r:udm20370-udt5420lv) Units=km Length=0.0293251 bus1=udt5420lv.1.2 bus2=udm20370.1.2 switch=n enabled=y phases=2 Linecode=1P_UG_AL_1/0_Brenau_2

New Line.l(r:p1ulv11958-udt5426lv) Units=km Length=0.11209700000000002 bus1=udt5426lv.1.2 bus2=p1ulv11958.1.2 switch=n enabled=y phases=2 Linecode=1P_UG_AL_1/0_Brenau_2

New Line.l(r:p1ulv17991-udt5426lv) Units=km Length=0.0103012 bus1=udt5426lv.1.2 bus2=p1ulv17991.1.2 switch=n enabled=y phases=2 Linecode=1P_UG_AL_1/0_Brenau_2

New Line.l(r:p1ulv17993-udt5426lv) Units=km Length=0.0116341 bus1=udt5426lv.1.2 bus2=p1ulv17993.1.2 switch=n enabled=y phases=2 Linecode=1P_UG_AL_1/0_Brenau_2

New Line.l(r:p1ulv13040-udt5898lv) Units=km Length=0.00511035 bus1=udt5898lv.1.2 bus2=p1ulv13040.1.2 switch=n enabled=y phases=2 Linecode=1P_OH_AL_2/0_Rucina_2

New Line.l(r:p1ulv13849-udm24304) Units=km Length=0.00890201 bus1=udm24304.1.2 bus2=p1ulv13849.1.2 switch=n enabled=y phases=2 Linecode=1P_UG_AL_1/0_Brenau_2

New Line.l(r:udm24304-udt6502lv) Units=km Length=0.007764 bus1=udt6502lv.1.2 bus2=udm24304.1.2 switch=n enabled=y phases=2 Linecode=1P_UG_AL_1/0_Brenau_2

New Line.l(r:p1ulv20331-udm24305) Units=km Length=0.00837259 bus1=udm24305.1.2 bus2=p1ulv20331.1.2 switch=n enabled=y phases=2 Linecode=1P_UG_AL_1/0_Brenau_2

New Line.l(r:udm24305-udt6502lv) Units=km Length=0.0172181 bus1=udt6502lv.1.2 bus2=udm24305.1.2 switch=n enabled=y phases=2 Linecode=1P_UG_AL_1/0_Brenau_2

New Line.l(r:p1ulv13931-udm24506) Units=km Length=0.0392955 bus1=udm24506.1.2 bus2=p1ulv13931.1.2 switch=n enabled=y phases=2 Linecode=1P_UG_AL_1/0_Brenau_2

New Line.l(r:p1ulv24006-udm24506) Units=km Length=0.0554879 bus1=udm24506.1.2 bus2=p1ulv24006.1.2 switch=n enabled=y phases=2 Linecode=1P_UG_AL_1/0_Brenau_2

New Line.l(r:udm24506-udt6564lv) Units=km Length=0.0182665 bus1=udt6564lv.1.2 bus2=udm24506.1.2 switch=n enabled=y phases=2 Linecode=1P_OH_AL_2/0_Rucina_2

New Line.l(r:p1ulv29267-udm24508) Units=km Length=0.0227451 bus1=udm24508.1.2 bus2=p1ulv29267.1.2 switch=n enabled=y phases=2 Linecode=1P_OH_AL_2/0_Rucina_2

New Line.l(r:udm24508-udt6564lv) Units=km Length=0.036533 bus1=udt6564lv.1.2 bus2=udm24508.1.2 switch=n enabled=y phases=2 Linecode=1P_OH_AL_4/0_Zuzara_2

New Line.l(r:p1ulv14085-udt6668lv) Units=km Length=0.00563847 bus1=udt6668lv.1.2 bus2=p1ulv14085.1.2 switch=n enabled=y phases=2 Linecode=1P_OH_AL_2/0_Rucina_2

New Line.l(r:p1ulv14661-udt6972lv) Units=km Length=0.0154726 bus1=udt6972lv.1.2 bus2=p1ulv14661.1.2 switch=n enabled=y phases=2 Linecode=1P_UG_AL_4/0_Sweetbriar_2

New Line.l(r:p1ulv14678-udt6980lv) Units=km Length=0.001 bus1=udt6980lv.1.2 bus2=p1ulv14678.1.2 switch=n enabled=y phases=2 Linecode=1P_OH_AL_4_Periwinkle_2

New Line.l(r:p1ulv14787-udm26211) Units=km Length=0.019688000000000004 bus1=udm26211.1.2 bus2=p1ulv14787.1.2 switch=n enabled=y phases=2 Linecode=1P_UG_AL_1/0_Brenau_2

New Line.l(r:p1ulv25678-udm26211) Units=km Length=0.025052 bus1=udm26211.1.2 bus2=p1ulv25678.1.2 switch=n enabled=y phases=2 Linecode=1P_UG_AL_1/0_Brenau_2

New Line.l(r:udm26211-udt7042lv) Units=km Length=0.019550600000000005 bus1=udt7042lv.1.2 bus2=udm26211.1.2 switch=n enabled=y phases=2 Linecode=1P_UG_AL_2/0_Converse_2

New Line.l(r:p1ulv32418-udm26213) Units=km Length=0.0277444 bus1=udm26213.1.2 bus2=p1ulv32418.1.2 switch=n enabled=y phases=2 Linecode=1P_UG_AL_1/0_Brenau_2

New Line.l(r:udm26213-udt7042lv) Units=km Length=0.0391066 bus1=udt7042lv.1.2 bus2=udm26213.1.2 switch=n enabled=y phases=2 Linecode=1P_UG_AL_1/0_Brenau_2

New Line.l(r:p1ulv18048-udt7272lv) Units=km Length=0.0107622 bus1=udt7272lv.1.2 bus2=p1ulv18048.1.2 switch=n enabled=y phases=2 Linecode=1P_UG_AL_1/0_Brenau_2

New Line.l(r:p1ulv15178-udm26905) Units=km Length=0.0255328 bus1=udm26905.1.2 bus2=p1ulv15178.1.2 switch=n enabled=y phases=2 Linecode=1P_OH_AL_2/0_Rucina_2

New Line.l(r:udm26905-udt7272lv) Units=km Length=0.0657207 bus1=udt7272lv.1.2 bus2=udm26905.1.2 switch=n enabled=y phases=2 Linecode=1P_OH_AL_4/0_Zuzara_2

New Line.l(r:p1ulv18038-udm26906) Units=km Length=0.0292438 bus1=udm26906.1.2 bus2=p1ulv18038.1.2 switch=n enabled=y phases=2 Linecode=1P_UG_AL_1/0_Brenau_2

New Line.l(r:p1ulv18041-udm26906) Units=km Length=0.0190304 bus1=udm26906.1.2 bus2=p1ulv18041.1.2 switch=n enabled=y phases=2 Linecode=1P_UG_AL_1/0_Brenau_2

New Line.l(r:p1ulv18049-udm26906) Units=km Length=0.0105689 bus1=udm26906.1.2 bus2=p1ulv18049.1.2 switch=n enabled=y phases=2 Linecode=1P_UG_AL_1/0_Brenau_2

New Line.l(r:p1ulv18039-udm26907) Units=km Length=0.028098100000000004 bus1=udm26907.1.2 bus2=p1ulv18039.1.2 switch=n enabled=y phases=2 Linecode=1P_UG_AL_1/0_Brenau_2

New Line.l(r:udm26906-udm26907) Units=km Length=0.00906718 bus1=udm26906.1.2 bus2=udm26907.1.2 switch=n enabled=y phases=2 Linecode=1P_UG_AL_1/0_Brenau_2

New Line.l(r:udm26906-udt7272lv) Units=km Length=0.00906388 bus1=udt7272lv.1.2 bus2=udm26906.1.2 switch=n enabled=y phases=2 Linecode=1P_UG_AL_4/0_Sweetbriar_2

New Line.l(r:p1ulv15304-udt7341lv) Units=km Length=0.0286147 bus1=udt7341lv.1.2 bus2=p1ulv15304.1.2 switch=n enabled=y phases=2 Linecode=1P_UG_AL_1/0_Brenau_2

New Line.l(r:p1ulv15330-udt7353lv) Units=km Length=0.014827700000000001 bus1=udt7353lv.1.2 bus2=p1ulv15330.1.2 switch=n enabled=y phases=2 Linecode=1P_OH_AL_2/0_Rucina_2

New Line.l(r:p1ulv15498-udt7433lv) Units=km Length=0.0690757 bus1=udt7433lv.1.2 bus2=p1ulv15498.1.2 switch=n enabled=y phases=2 Linecode=1P_OH_AL_4/0_Zuzara_2

New Line.l(r:p1ulv15817-udm27860) Units=km Length=0.028889900000000003 bus1=udm27860.1.2 bus2=p1ulv15817.1.2 switch=n enabled=y phases=2 Linecode=1P_UG_AL_1/0_Brenau_2

New Line.l(r:udm27860-udt7597lv) Units=km Length=0.0277172 bus1=udt7597lv.1.2 bus2=udm27860.1.2 switch=n enabled=y phases=2 Linecode=1P_UG_AL_1/0_Brenau_2

New Line.l(r:p1ulv22331-udm27861) Units=km Length=0.0266714 bus1=udm27861.1.2 bus2=p1ulv22331.1.2 switch=n enabled=y phases=2 Linecode=1P_UG_AL_1/0_Brenau_2

New Line.l(r:udm27861-udt7597lv) Units=km Length=0.0288545 bus1=udt7597lv.1.2 bus2=udm27861.1.2 switch=n enabled=y phases=2 Linecode=1P_UG_AL_1/0_Brenau_2

New Line.l(r:p1ulv17987-udt7860lv) Units=km Length=0.0129433 bus1=udt7860lv.1.2 bus2=p1ulv17987.1.2 switch=n enabled=y phases=2 Linecode=1P_UG_AL_1/0_Brenau_2

New Line.l(r:p1ulv17982-udm28759) Units=km Length=0.0112079 bus1=udm28759.1.2 bus2=p1ulv17982.1.2 switch=n enabled=y phases=2 Linecode=1P_UG_AL_1/0_Brenau_2

New Line.l(r:p1ulv17984-udm28759) Units=km Length=0.0116478 bus1=udm28759.1.2 bus2=p1ulv17984.1.2 switch=n enabled=y phases=2 Linecode=1P_UG_AL_1/0_Brenau_2

New Line.l(r:p1ulv17985-udm28761) Units=km Length=0.0118843 bus1=udm28761.1.2 bus2=p1ulv17985.1.2 switch=n enabled=y phases=2 Linecode=1P_UG_AL_1/0_Brenau_2

New Line.l(r:p1ulv17986-udm28761) Units=km Length=0.0137951 bus1=udm28761.1.2 bus2=p1ulv17986.1.2 switch=n enabled=y phases=2 Linecode=1P_UG_AL_1/0_Brenau_2

New Line.l(r:udm28759-udm28761) Units=km Length=0.00865744 bus1=udm28759.1.2 bus2=udm28761.1.2 switch=n enabled=y phases=2 Linecode=1P_UG_AL_1/0_Brenau_2

New Line.l(r:udm28759-udt7860lv) Units=km Length=0.00842076 bus1=udt7860lv.1.2 bus2=udm28759.1.2 switch=n enabled=y phases=2 Linecode=1P_UG_AL_4/0_Sweetbriar_2

New Line.l(r:p1ulv17988-udm28764) Units=km Length=0.0119095 bus1=udm28764.1.2 bus2=p1ulv17988.1.2 switch=n enabled=y phases=2 Linecode=1P_UG_AL_1/0_Brenau_2

New Line.l(r:p1ulv17989-udm28765) Units=km Length=0.011757 bus1=udm28765.1.2 bus2=p1ulv17989.1.2 switch=n enabled=y phases=2 Linecode=1P_UG_AL_1/0_Brenau_2

New Line.l(r:p1ulv17990-udm28765) Units=km Length=0.0112144 bus1=udm28765.1.2 bus2=p1ulv17990.1.2 switch=n enabled=y phases=2 Linecode=1P_UG_AL_1/0_Brenau_2

New Line.l(r:p1ulv16261-udm28758) Units=km Length=0.00726086 bus1=udm28758.1.2 bus2=p1ulv16261.1.2 switch=n enabled=y phases=2 Linecode=1P_UG_AL_1/0_Brenau_2

New Line.l(r:p1ulv18097-udm28758) Units=km Length=0.00944434 bus1=udm28758.1.2 bus2=p1ulv18097.1.2 switch=n enabled=y phases=2 Linecode=1P_UG_AL_1/0_Brenau_2

New Line.l(r:udm28758-udm28765) Units=km Length=0.00800788 bus1=udm28765.1.2 bus2=udm28758.1.2 switch=n enabled=y phases=2 Linecode=1P_UG_AL_2/0_Converse_2

New Line.l(r:udm28764-udm28765) Units=km Length=0.00800952 bus1=udm28764.1.2 bus2=udm28765.1.2 switch=n enabled=y phases=2 Linecode=1P_UG_AL_4/0_Sweetbriar_2

New Line.l(r:udm28764-udt7860lv) Units=km Length=0.00954063 bus1=udt7860lv.1.2 bus2=udm28764.1.2 switch=n enabled=y phases=2 Linecode=1P_UG_AL_4/0_Sweetbriar_2

New Line.l(r:p1ulv16262-udt7861lv) Units=km Length=0.0150034 bus1=udt7861lv.1.2 bus2=p1ulv16262.1.2 switch=n enabled=y phases=2 Linecode=1P_UG_AL_1/0_Brenau_2

New Line.l(r:p1ulv16276-udt7861lv) Units=km Length=0.0135723 bus1=udt7861lv.1.2 bus2=p1ulv16276.1.2 switch=n enabled=y phases=2 Linecode=1P_UG_AL_1/0_Brenau_2

New Line.l(r:p1ulv16263-udm28769) Units=km Length=0.015239700000000002 bus1=udm28769.1.2 bus2=p1ulv16263.1.2 switch=n enabled=y phases=2 Linecode=1P_UG_AL_1/0_Brenau_2

New Line.l(r:p1ulv16277-udm28769) Units=km Length=0.0130165 bus1=udm28769.1.2 bus2=p1ulv16277.1.2 switch=n enabled=y phases=2 Linecode=1P_UG_AL_1/0_Brenau_2

New Line.l(r:p1ulv16264-udm28770) Units=km Length=0.0157267 bus1=udm28770.1.2 bus2=p1ulv16264.1.2 switch=n enabled=y phases=2 Linecode=1P_UG_AL_1/0_Brenau_2

New Line.l(r:p1ulv16278-udm28770) Units=km Length=0.0125753 bus1=udm28770.1.2 bus2=p1ulv16278.1.2 switch=n enabled=y phases=2 Linecode=1P_UG_AL_1/0_Brenau_2

New Line.l(r:udm28769-udm28770) Units=km Length=0.00896565 bus1=udm28769.1.2 bus2=udm28770.1.2 switch=n enabled=y phases=2 Linecode=1P_UG_AL_1/0_Brenau_2

New Line.l(r:udm28769-udt7861lv) Units=km Length=0.00896565 bus1=udt7861lv.1.2 bus2=udm28769.1.2 switch=n enabled=y phases=2 Linecode=1P_UG_AL_2/0_Converse_2

New Line.l(r:p1ulv16266-udm28771) Units=km Length=0.014536400000000001 bus1=udm28771.1.2 bus2=p1ulv16266.1.2 switch=n enabled=y phases=2 Linecode=1P_UG_AL_1/0_Brenau_2

New Line.l(r:p1ulv16279-udm28775) Units=km Length=0.0138531 bus1=udm28775.1.2 bus2=p1ulv16279.1.2 switch=n enabled=y phases=2 Linecode=1P_UG_AL_1/0_Brenau_2

New Line.l(r:p1ulv16280-udm28775) Units=km Length=0.0125494 bus1=udm28775.1.2 bus2=p1ulv16280.1.2 switch=n enabled=y phases=2 Linecode=1P_UG_AL_1/0_Brenau_2

New Line.l(r:p1ulv16281-udm28777) Units=km Length=0.0105126 bus1=udm28777.1.2 bus2=p1ulv16281.1.2 switch=n enabled=y phases=2 Linecode=1P_UG_AL_1/0_Brenau_2

New Line.l(r:udm28775-udm28777) Units=km Length=0.014904 bus1=udm28775.1.2 bus2=udm28777.1.2 switch=n enabled=y phases=2 Linecode=1P_UG_AL_1/0_Brenau_2

New Line.l(r:udm28771-udm28775) Units=km Length=0.00775012 bus1=udm28771.1.2 bus2=udm28775.1.2 switch=n enabled=y phases=2 Linecode=1P_UG_AL_4/0_Sweetbriar_2

New Line.l(r:udm28771-udt7861lv) Units=km Length=0.00897504 bus1=udt7861lv.1.2 bus2=udm28771.1.2 switch=n enabled=y phases=2 Linecode=1P_UG_AL_4/0_Sweetbriar_2

New Line.l(r:p1ulv16273-udt7862lv) Units=km Length=0.0174319 bus1=udt7862lv.1.2 bus2=p1ulv16273.1.2 switch=n enabled=y phases=2 Linecode=1P_UG_AL_1/0_Brenau_2

New Line.l(r:p1ulv16269-udm28779) Units=km Length=0.0167172 bus1=udm28779.1.2 bus2=p1ulv16269.1.2 switch=n enabled=y phases=2 Linecode=1P_UG_AL_1/0_Brenau_2

New Line.l(r:p1ulv16270-udm28779) Units=km Length=0.0157946 bus1=udm28779.1.2 bus2=p1ulv16270.1.2 switch=n enabled=y phases=2 Linecode=1P_UG_AL_1/0_Brenau_2

New Line.l(r:p1ulv16272-udm28779) Units=km Length=0.0166978 bus1=udm28779.1.2 bus2=p1ulv16272.1.2 switch=n enabled=y phases=2 Linecode=1P_UG_AL_1/0_Brenau_2

New Line.l(r:p1ulv16268-udm28778) Units=km Length=0.0181243 bus1=udm28778.1.2 bus2=p1ulv16268.1.2 switch=n enabled=y phases=2 Linecode=1P_UG_AL_1/0_Brenau_2

New Line.l(r:udm28778-udm28779) Units=km Length=0.00492833 bus1=udm28779.1.2 bus2=udm28778.1.2 switch=n enabled=y phases=2 Linecode=1P_UG_AL_1/0_Brenau_2

New Line.l(r:udm28779-udt7862lv) Units=km Length=0.0071597 bus1=udt7862lv.1.2 bus2=udm28779.1.2 switch=n enabled=y phases=2 Linecode=1P_UG_AL_4/0_Sweetbriar_2

New Line.l(r:p1ulv16274-udm28783) Units=km Length=0.0179429 bus1=udm28783.1.2 bus2=p1ulv16274.1.2 switch=n enabled=y phases=2 Linecode=1P_UG_AL_1/0_Brenau_2

New Line.l(r:p1ulv16275-udm28783) Units=km Length=0.0198574 bus1=udm28783.1.2 bus2=p1ulv16275.1.2 switch=n enabled=y phases=2 Linecode=1P_UG_AL_1/0_Brenau_2

New Line.l(r:udm28783-udt7862lv) Units=km Length=0.0071538800000000005 bus1=udt7862lv.1.2 bus2=udm28783.1.2 switch=n enabled=y phases=2 Linecode=1P_UG_AL_1/0_Brenau_2

New Line.l(r:p1ulv16282-udm28785) Units=km Length=0.0175622 bus1=udm28785.1.2 bus2=p1ulv16282.1.2 switch=n enabled=y phases=2 Linecode=1P_UG_AL_1/0_Brenau_2

New Line.l(r:p1ulv16296-udm28785) Units=km Length=0.0133735 bus1=udm28785.1.2 bus2=p1ulv16296.1.2 switch=n enabled=y phases=2 Linecode=1P_UG_AL_1/0_Brenau_2

New Line.l(r:p1ulv16297-udm28785) Units=km Length=0.0160027 bus1=udm28785.1.2 bus2=p1ulv16297.1.2 switch=n enabled=y phases=2 Linecode=1P_UG_AL_1/0_Brenau_2

New Line.l(r:p1ulv16295-udm28789) Units=km Length=0.009032700000000001 bus1=udm28789.1.2 bus2=p1ulv16295.1.2 switch=n enabled=y phases=2 Linecode=1P_UG_AL_1/0_Brenau_2

New Line.l(r:udm28785-udm28789) Units=km Length=0.00987054 bus1=udm28785.1.2 bus2=udm28789.1.2 switch=n enabled=y phases=2 Linecode=1P_UG_AL_1/0_Brenau_2

New Line.l(r:udm28785-udt7863lv) Units=km Length=0.00988041 bus1=udt7863lv.1.2 bus2=udm28785.1.2 switch=n enabled=y phases=2 Linecode=1P_UG_AL_4/0_Sweetbriar_2

New Line.l(r:p1ulv16284-udm28786) Units=km Length=0.015468900000000002 bus1=udm28786.1.2 bus2=p1ulv16284.1.2 switch=n enabled=y phases=2 Linecode=1P_UG_AL_1/0_Brenau_2

New Line.l(r:p1ulv16285-udm28787) Units=km Length=0.013108000000000002 bus1=udm28787.1.2 bus2=p1ulv16285.1.2 switch=n enabled=y phases=2 Linecode=1P_UG_AL_1/0_Brenau_2

New Line.l(r:p1ulv16286-udm28788) Units=km Length=0.0105095 bus1=udm28788.1.2 bus2=p1ulv16286.1.2 switch=n enabled=y phases=2 Linecode=1P_UG_AL_1/0_Brenau_2

New Line.l(r:udm28787-udm28788) Units=km Length=0.00748954 bus1=udm28787.1.2 bus2=udm28788.1.2 switch=n enabled=y phases=2 Linecode=1P_UG_AL_1/0_Brenau_2

New Line.l(r:udm28786-udm28787) Units=km Length=0.0147761 bus1=udm28786.1.2 bus2=udm28787.1.2 switch=n enabled=y phases=2 Linecode=1P_UG_AL_1/0_Brenau_2

New Line.l(r:udm28786-udt7863lv) Units=km Length=0.0083224 bus1=udt7863lv.1.2 bus2=udm28786.1.2 switch=n enabled=y phases=2 Linecode=1P_UG_AL_2/0_Converse_2

New Line.l(r:p1ulv16288-udt7864lv) Units=km Length=0.0178184 bus1=udt7864lv.1.2 bus2=p1ulv16288.1.2 switch=n enabled=y phases=2 Linecode=1P_UG_AL_1/0_Brenau_2

New Line.l(r:p1ulv16287-udm28792) Units=km Length=0.0183115 bus1=udm28792.1.2 bus2=p1ulv16287.1.2 switch=n enabled=y phases=2 Linecode=1P_UG_AL_1/0_Brenau_2

New Line.l(r:p1ulv16299-udm28798) Units=km Length=0.00960042 bus1=udm28798.1.2 bus2=p1ulv16299.1.2 switch=n enabled=y phases=2 Linecode=1P_UG_AL_1/0_Brenau_2

New Line.l(r:p1ulv16300-udm28798) Units=km Length=0.00684202 bus1=udm28798.1.2 bus2=p1ulv16300.1.2 switch=n enabled=y phases=2 Linecode=1P_UG_AL_1/0_Brenau_2

New Line.l(r:p1ulv16298-udm28797) Units=km Length=0.014132900000000002 bus1=udm28797.1.2 bus2=p1ulv16298.1.2 switch=n enabled=y phases=2 Linecode=1P_UG_AL_1/0_Brenau_2

New Line.l(r:udm28797-udm28798) Units=km Length=0.00871281 bus1=udm28798.1.2 bus2=udm28797.1.2 switch=n enabled=y phases=2 Linecode=1P_UG_AL_1/0_Brenau_2

New Line.l(r:udm28792-udm28798) Units=km Length=0.00871281 bus1=udm28792.1.2 bus2=udm28798.1.2 switch=n enabled=y phases=2 Linecode=1P_UG_AL_2/0_Converse_2

New Line.l(r:udm28792-udt7864lv) Units=km Length=0.00819413 bus1=udt7864lv.1.2 bus2=udm28792.1.2 switch=n enabled=y phases=2 Linecode=1P_UG_AL_4/0_Sweetbriar_2

New Line.l(r:p1ulv16289-udm28794) Units=km Length=0.0174525 bus1=udm28794.1.2 bus2=p1ulv16289.1.2 switch=n enabled=y phases=2 Linecode=1P_UG_AL_1/0_Brenau_2

New Line.l(r:p1ulv16290-udm28794) Units=km Length=0.0164566 bus1=udm28794.1.2 bus2=p1ulv16290.1.2 switch=n enabled=y phases=2 Linecode=1P_UG_AL_1/0_Brenau_2

New Line.l(r:p1ulv16306-udm28794) Units=km Length=0.0142045 bus1=udm28794.1.2 bus2=p1ulv16306.1.2 switch=n enabled=y phases=2 Linecode=1P_UG_AL_1/0_Brenau_2

New Line.l(r:p1ulv16294-udm28796) Units=km Length=0.0169734 bus1=udm28796.1.2 bus2=p1ulv16294.1.2 switch=n enabled=y phases=2 Linecode=1P_UG_AL_1/0_Brenau_2

New Line.l(r:p1ulv16312-udm28801) Units=km Length=0.0182422 bus1=udm28801.1.2 bus2=p1ulv16312.1.2 switch=n enabled=y phases=2 Linecode=1P_UG_AL_1/0_Brenau_2

New Line.l(r:udm28796-udm28801) Units=km Length=0.00886288 bus1=udm28796.1.2 bus2=udm28801.1.2 switch=n enabled=y phases=2 Linecode=1P_UG_AL_1/0_Brenau_2

New Line.l(r:udm28794-udm28796) Units=km Length=0.0265574 bus1=udm28794.1.2 bus2=udm28796.1.2 switch=n enabled=y phases=2 Linecode=1P_UG_AL_1/0_Brenau_2

New Line.l(r:udm28794-udt7864lv) Units=km Length=0.00819413 bus1=udt7864lv.1.2 bus2=udm28794.1.2 switch=n enabled=y phases=2 Linecode=1P_UG_AL_4/0_Sweetbriar_2

New Line.l(r:p1ulv16301-udt7865lv) Units=km Length=0.0162565 bus1=udt7865lv.1.2 bus2=p1ulv16301.1.2 switch=n enabled=y phases=2 Linecode=1P_UG_AL_1/0_Brenau_2

New Line.l(r:p1ulv16293-udm28803) Units=km Length=0.0169918 bus1=udm28803.1.2 bus2=p1ulv16293.1.2 switch=n enabled=y phases=2 Linecode=1P_UG_AL_1/0_Brenau_2

New Line.l(r:p1ulv16302-udm28803) Units=km Length=0.0160328 bus1=udm28803.1.2 bus2=p1ulv16302.1.2 switch=n enabled=y phases=2 Linecode=1P_UG_AL_1/0_Brenau_2

New Line.l(r:p1ulv16303-udm28803) Units=km Length=0.0157154 bus1=udm28803.1.2 bus2=p1ulv16303.1.2 switch=n enabled=y phases=2 Linecode=1P_UG_AL_1/0_Brenau_2

New Line.l(r:p1ulv16292-udm28802) Units=km Length=0.0166618 bus1=udm28802.1.2 bus2=p1ulv16292.1.2 switch=n enabled=y phases=2 Linecode=1P_UG_AL_1/0_Brenau_2

New Line.l(r:p1ulv16304-udm28802) Units=km Length=0.0148841 bus1=udm28802.1.2 bus2=p1ulv16304.1.2 switch=n enabled=y phases=2 Linecode=1P_UG_AL_1/0_Brenau_2

New Line.l(r:udm28802-udm28803) Units=km Length=0.00885142 bus1=udm28803.1.2 bus2=udm28802.1.2 switch=n enabled=y phases=2 Linecode=1P_UG_AL_2/0_Converse_2

New Line.l(r:udm28803-udt7865lv) Units=km Length=0.00885301 bus1=udt7865lv.1.2 bus2=udm28803.1.2 switch=n enabled=y phases=2 Linecode=1P_UG_AL_4/0_Sweetbriar_2

New Line.l(r:p1ulv16307-udm28808) Units=km Length=0.011783 bus1=udm28808.1.2 bus2=p1ulv16307.1.2 switch=n enabled=y phases=2 Linecode=1P_UG_AL_1/0_Brenau_2

New Line.l(r:p1ulv16308-udm28808) Units=km Length=0.00991252 bus1=udm28808.1.2 bus2=p1ulv16308.1.2 switch=n enabled=y phases=2 Linecode=1P_UG_AL_1/0_Brenau_2

New Line.l(r:p1ulv16310-udm28808) Units=km Length=0.0108282 bus1=udm28808.1.2 bus2=p1ulv16310.1.2 switch=n enabled=y phases=2 Linecode=1P_UG_AL_1/0_Brenau_2

New Line.l(r:p1ulv16311-udm28808) Units=km Length=0.0138129 bus1=udm28808.1.2 bus2=p1ulv16311.1.2 switch=n enabled=y phases=2 Linecode=1P_UG_AL_1/0_Brenau_2

New Line.l(r:udm28808-udt7865lv) Units=km Length=0.00886288 bus1=udt7865lv.1.2 bus2=udm28808.1.2 switch=n enabled=y phases=2 Linecode=1P_UG_AL_4/0_Sweetbriar_2

New Line.l(r:p1ulv16313-udt7866lv) Units=km Length=0.021280200000000003 bus1=udt7866lv.1.2 bus2=p1ulv16313.1.2 switch=n enabled=y phases=2 Linecode=1P_UG_AL_1/0_Brenau_2

New Line.l(r:p1ulv16314-udt7866lv) Units=km Length=0.0178 bus1=udt7866lv.1.2 bus2=p1ulv16314.1.2 switch=n enabled=y phases=2 Linecode=1P_UG_AL_1/0_Brenau_2

New Line.l(r:p1ulv16315-udt7866lv) Units=km Length=0.015603400000000002 bus1=udt7866lv.1.2 bus2=p1ulv16315.1.2 switch=n enabled=y phases=2 Linecode=1P_UG_AL_1/0_Brenau_2

New Line.l(r:p1ulv16316-udt7866lv) Units=km Length=0.015486900000000001 bus1=udt7866lv.1.2 bus2=p1ulv16316.1.2 switch=n enabled=y phases=2 Linecode=1P_UG_AL_1/0_Brenau_2

New Line.l(r:p1ulv16317-udm28816) Units=km Length=0.0153303 bus1=udm28816.1.2 bus2=p1ulv16317.1.2 switch=n enabled=y phases=2 Linecode=1P_UG_AL_1/0_Brenau_2

New Line.l(r:p1ulv16319-udm28817) Units=km Length=0.015124100000000001 bus1=udm28817.1.2 bus2=p1ulv16319.1.2 switch=n enabled=y phases=2 Linecode=1P_UG_AL_1/0_Brenau_2

New Line.l(r:p1ulv16320-udm28818) Units=km Length=0.013925900000000001 bus1=udm28818.1.2 bus2=p1ulv16320.1.2 switch=n enabled=y phases=2 Linecode=1P_UG_AL_1/0_Brenau_2

New Line.l(r:udm28817-udm28818) Units=km Length=0.008977 bus1=udm28817.1.2 bus2=udm28818.1.2 switch=n enabled=y phases=2 Linecode=1P_UG_AL_1/0_Brenau_2

New Line.l(r:udm28816-udm28817) Units=km Length=0.00942635 bus1=udm28816.1.2 bus2=udm28817.1.2 switch=n enabled=y phases=2 Linecode=1P_UG_AL_1/0_Brenau_2

New Line.l(r:udm28816-udt7866lv) Units=km Length=0.009422450000000002 bus1=udt7866lv.1.2 bus2=udm28816.1.2 switch=n enabled=y phases=2 Linecode=1P_UG_AL_2/0_Converse_2

New Line.l(r:p1ulv18096-udm28820) Units=km Length=0.0231619 bus1=udm28820.1.2 bus2=p1ulv18096.1.2 switch=n enabled=y phases=2 Linecode=1P_UG_AL_1/0_Brenau_2

New Line.l(r:p1ulv18091-udm28819) Units=km Length=0.020623800000000005 bus1=udm28819.1.2 bus2=p1ulv18091.1.2 switch=n enabled=y phases=2 Linecode=1P_OH_AL_2/0_Rucina_2

New Line.l(r:udm28819-udm28820) Units=km Length=0.10009400000000002 bus1=udm28820.1.2 bus2=udm28819.1.2 switch=n enabled=y phases=2 Linecode=1P_OH_AL_4/0_Zuzara_2

New Line.l(r:udm28820-udt7866lv) Units=km Length=0.00754351 bus1=udt7866lv.1.2 bus2=udm28820.1.2 switch=n enabled=y phases=2 Linecode=1P_UG_AL_1/0_Brenau_2

New Line.l(r:p1ulv16349-udt7873lv) Units=km Length=0.00750233 bus1=udt7873lv.1.2 bus2=p1ulv16349.1.2 switch=n enabled=y phases=2 Linecode=1P_UG_AL_1/0_Brenau_2

New Line.l(r:p1ulv16350-udm28843) Units=km Length=0.007799100000000001 bus1=udm28843.1.2 bus2=p1ulv16350.1.2 switch=n enabled=y phases=2 Linecode=1P_OH_AL_2/0_Rucina_2

New Line.l(r:udm28843-udt7873lv) Units=km Length=0.026993 bus1=udt7873lv.1.2 bus2=udm28843.1.2 switch=n enabled=y phases=2 Linecode=1P_OH_AL_2/0_Rucina_2

New Line.l(r:p1ulv19820-udm28844) Units=km Length=0.00796538 bus1=udm28844.1.2 bus2=p1ulv19820.1.2 switch=n enabled=y phases=2 Linecode=1P_UG_AL_1/0_Brenau_2

New Line.l(r:p1ulv35911-udm28844) Units=km Length=0.00959444 bus1=udm28844.1.2 bus2=p1ulv35911.1.2 switch=n enabled=y phases=2 Linecode=1P_UG_AL_1/0_Brenau_2

New Line.l(r:udm28844-udt7873lv) Units=km Length=0.0179998 bus1=udt7873lv.1.2 bus2=udm28844.1.2 switch=n enabled=y phases=2 Linecode=1P_UG_AL_4/0_Sweetbriar_2

New Line.l(r:p1ulv16363-udm28857) Units=km Length=0.067478 bus1=udm28857.1.2 bus2=p1ulv16363.1.2 switch=n enabled=y phases=2 Linecode=1P_OH_AL_4/0_Zuzara_2

New Line.l(r:udm28857-udt7877lv) Units=km Length=0.00558506 bus1=udt7877lv.1.2 bus2=udm28857.1.2 switch=n enabled=y phases=2 Linecode=1P_OH_AL_2/0_Rucina_2

New Line.l(r:p1ulv16364-udm28858) Units=km Length=0.056538 bus1=udm28858.1.2 bus2=p1ulv16364.1.2 switch=n enabled=y phases=2 Linecode=1P_OH_AL_4/0_Zuzara_2

New Line.l(r:udm28858-udt7877lv) Units=km Length=0.0134554 bus1=udt7877lv.1.2 bus2=udm28858.1.2 switch=n enabled=y phases=2 Linecode=1P_OH_AL_2/0_Rucina_2

New Line.l(r:p1ulv16365-udt7878lv) Units=km Length=0.07823300000000001 bus1=udt7878lv.1.2 bus2=p1ulv16365.1.2 switch=n enabled=y phases=2 Linecode=1P_OH_AL_4/0_Zuzara_2

New Line.l(r:p1ulv16366-udt7879lv) Units=km Length=0.0131248 bus1=udt7879lv.1.2 bus2=p1ulv16366.1.2 switch=n enabled=y phases=2 Linecode=1P_OH_AL_2/0_Rucina_2

New Line.l(r:p1ulv16367-udt7879lv) Units=km Length=0.00424139 bus1=udt7879lv.1.2 bus2=p1ulv16367.1.2 switch=n enabled=y phases=2 Linecode=1P_OH_AL_2/0_Rucina_2

New Line.l(r:p1ulv16368-udt7879lv) Units=km Length=0.00376925 bus1=udt7879lv.1.2 bus2=p1ulv16368.1.2 switch=n enabled=y phases=2 Linecode=1P_OH_AL_4_Periwinkle_2

New Line.l(r:p1ulv16369-udt7879lv) Units=km Length=0.013597 bus1=udt7879lv.1.2 bus2=p1ulv16369.1.2 switch=n enabled=y phases=2 Linecode=1P_OH_AL_2/0_Rucina_2

New Line.l(r:p1ulv16370-udt7880lv) Units=km Length=0.0723851 bus1=udt7880lv.1.2 bus2=p1ulv16370.1.2 switch=n enabled=y phases=2 Linecode=1P_OH_AL_4/0_Zuzara_2

New Line.l(r:p1ulv16371-udt7880lv) Units=km Length=0.09350910000000001 bus1=udt7880lv.1.2 bus2=p1ulv16371.1.2 switch=n enabled=y phases=2 Linecode=1P_OH_AL_4/0_Zuzara_2

New Line.l(r:p1ulv16372-udt7880lv) Units=km Length=0.10283700000000001 bus1=udt7880lv.1.2 bus2=p1ulv16372.1.2 switch=n enabled=y phases=2 Linecode=1P_OH_AL_4/0_Zuzara_2

New Line.l(r:p1ulv16373-udt7880lv) Units=km Length=0.11376000000000001 bus1=udt7880lv.1.2 bus2=p1ulv16373.1.2 switch=n enabled=y phases=2 Linecode=1P_OH_AL_4/0_Zuzara_2

New Line.l(r:p1ulv16374-udt7881lv) Units=km Length=0.0534198 bus1=udt7881lv.1.2 bus2=p1ulv16374.1.2 switch=n enabled=y phases=2 Linecode=1P_OH_AL_4/0_Zuzara_2

New Line.l(r:p1ulv16377-udt7881lv) Units=km Length=0.0660678 bus1=udt7881lv.1.2 bus2=p1ulv16377.1.2 switch=n enabled=y phases=2 Linecode=1P_OH_AL_4/0_Zuzara_2

New Line.l(r:p1ulv16378-udt7881lv) Units=km Length=0.0624487 bus1=udt7881lv.1.2 bus2=p1ulv16378.1.2 switch=n enabled=y phases=2 Linecode=1P_OH_AL_4/0_Zuzara_2

New Line.l(r:p1ulv16376-udm28870) Units=km Length=0.0684656 bus1=udm28870.1.2 bus2=p1ulv16376.1.2 switch=n enabled=y phases=2 Linecode=1P_OH_AL_4/0_Zuzara_2

New Line.l(r:p1ulv16375-udm28869) Units=km Length=0.0712314 bus1=udm28869.1.2 bus2=p1ulv16375.1.2 switch=n enabled=y phases=2 Linecode=1P_OH_AL_4/0_Zuzara_2

New Line.l(r:udm28869-udm28870) Units=km Length=0.018329 bus1=udm28870.1.2 bus2=udm28869.1.2 switch=n enabled=y phases=2 Linecode=1P_OH_AL_2/0_Rucina_2

New Line.l(r:udm28870-udt7881lv) Units=km Length=0.017177 bus1=udt7881lv.1.2 bus2=udm28870.1.2 switch=n enabled=y phases=2 Linecode=1P_OH_AL_2/0_Rucina_2

New Line.l(r:p1ulv16379-udt7882lv) Units=km Length=0.034194 bus1=udt7882lv.1.2 bus2=p1ulv16379.1.2 switch=n enabled=y phases=2 Linecode=1P_OH_AL_4/0_Zuzara_2

New Line.l(r:p1ulv16387-udt7882lv) Units=km Length=0.0515268 bus1=udt7882lv.1.2 bus2=p1ulv16387.1.2 switch=n enabled=y phases=2 Linecode=1P_OH_AL_4/0_Zuzara_2

New Line.l(r:p1ulv16388-udt7882lv) Units=km Length=0.0442341 bus1=udt7882lv.1.2 bus2=p1ulv16388.1.2 switch=n enabled=y phases=2 Linecode=1P_OH_AL_4/0_Zuzara_2

New Line.l(r:p1ulv16380-udm28874) Units=km Length=0.0397829 bus1=udm28874.1.2 bus2=p1ulv16380.1.2 switch=n enabled=y phases=2 Linecode=1P_OH_AL_4/0_Zuzara_2

New Line.l(r:p1ulv16381-udm28874) Units=km Length=0.0437699 bus1=udm28874.1.2 bus2=p1ulv16381.1.2 switch=n enabled=y phases=2 Linecode=1P_OH_AL_4/0_Zuzara_2

New Line.l(r:p1ulv16384-udm28874) Units=km Length=0.0542699 bus1=udm28874.1.2 bus2=p1ulv16384.1.2 switch=n enabled=y phases=2 Linecode=1P_OH_AL_4/0_Zuzara_2

New Line.l(r:udm28874-udt7882lv) Units=km Length=0.0184702 bus1=udt7882lv.1.2 bus2=udm28874.1.2 switch=n enabled=y phases=2 Linecode=1P_OH_AL_2/0_Rucina_2

New Line.l(r:p1ulv16382-udt7883lv) Units=km Length=0.0507495 bus1=udt7883lv.1.2 bus2=p1ulv16382.1.2 switch=n enabled=y phases=2 Linecode=1P_OH_AL_4/0_Zuzara_2

New Line.l(r:p1ulv16383-udt7883lv) Units=km Length=0.0560896 bus1=udt7883lv.1.2 bus2=p1ulv16383.1.2 switch=n enabled=y phases=2 Linecode=1P_OH_AL_4/0_Zuzara_2

New Line.l(r:p1ulv16386-udt7883lv) Units=km Length=0.066258 bus1=udt7883lv.1.2 bus2=p1ulv16386.1.2 switch=n enabled=y phases=2 Linecode=1P_OH_AL_4/0_Zuzara_2

New Line.l(r:p1ulv16385-udm28881) Units=km Length=0.06060630000000001 bus1=udm28881.1.2 bus2=p1ulv16385.1.2 switch=n enabled=y phases=2 Linecode=1P_OH_AL_4/0_Zuzara_2

New Line.l(r:udm28881-udt7883lv) Units=km Length=0.0184702 bus1=udt7883lv.1.2 bus2=udm28881.1.2 switch=n enabled=y phases=2 Linecode=1P_OH_AL_2/0_Rucina_2

New Line.l(r:p1ulv16390-udt7884lv) Units=km Length=0.00963569 bus1=udt7884lv.1.2 bus2=p1ulv16390.1.2 switch=n enabled=y phases=2 Linecode=1P_UG_AL_1/0_Brenau_2

New Line.l(r:p1ulv34390-udt7884lv) Units=km Length=0.00820975 bus1=udt7884lv.1.2 bus2=p1ulv34390.1.2 switch=n enabled=y phases=2 Linecode=1P_UG_AL_1/0_Brenau_2

New Line.l(r:p1ulv16389-udm28883) Units=km Length=0.00886526 bus1=udm28883.1.2 bus2=p1ulv16389.1.2 switch=n enabled=y phases=2 Linecode=1P_UG_AL_1/0_Brenau_2

New Line.l(r:udm28883-udt7884lv) Units=km Length=0.015610000000000002 bus1=udt7884lv.1.2 bus2=udm28883.1.2 switch=n enabled=y phases=2 Linecode=1P_UG_AL_1/0_Brenau_2

New Line.l(r:p1ulv32433-udm28885) Units=km Length=0.00850243 bus1=udm28885.1.2 bus2=p1ulv32433.1.2 switch=n enabled=y phases=2 Linecode=1P_UG_AL_1/0_Brenau_2

New Line.l(r:udm28885-udt7884lv) Units=km Length=0.0174908 bus1=udt7884lv.1.2 bus2=udm28885.1.2 switch=n enabled=y phases=2 Linecode=1P_UG_AL_1/0_Brenau_2

New Line.l(r:p1ulv17532-udt8395lv) Units=km Length=0.0902135 bus1=udt8395lv.1.2 bus2=p1ulv17532.1.2 switch=n enabled=y phases=2 Linecode=1P_OH_AL_4/0_Zuzara_2

New Line.l(r:p1ulv17958-udt8646lv) Units=km Length=0.0243405 bus1=udt8646lv.1.2 bus2=p1ulv17958.1.2 switch=n enabled=y phases=2 Linecode=1P_UG_AL_1/0_Brenau_2

New Line.l(r:p1ulv17959-udt8646lv) Units=km Length=0.0183105 bus1=udt8646lv.1.2 bus2=p1ulv17959.1.2 switch=n enabled=y phases=2 Linecode=1P_UG_AL_1/0_Brenau_2

New Line.l(r:p1ulv17960-udt8646lv) Units=km Length=0.0110896 bus1=udt8646lv.1.2 bus2=p1ulv17960.1.2 switch=n enabled=y phases=2 Linecode=1P_UG_AL_1/0_Brenau_2

New Line.l(r:p1ulv17957-udm31014) Units=km Length=0.0288712 bus1=udm31014.1.2 bus2=p1ulv17957.1.2 switch=n enabled=y phases=2 Linecode=1P_OH_AL_4/0_Zuzara_2

New Line.l(r:udm31014-udt8646lv) Units=km Length=0.06301 bus1=udt8646lv.1.2 bus2=udm31014.1.2 switch=n enabled=y phases=2 Linecode=1P_OH_AL_4/0_Zuzara_2

New Line.l(r:p1ulv17967-udt8647lv) Units=km Length=0.0146313 bus1=udt8647lv.1.2 bus2=p1ulv17967.1.2 switch=n enabled=y phases=2 Linecode=1P_UG_AL_1/0_Brenau_2

New Line.l(r:p1ulv17971-udt8647lv) Units=km Length=0.0146977 bus1=udt8647lv.1.2 bus2=p1ulv17971.1.2 switch=n enabled=y phases=2 Linecode=1P_UG_AL_1/0_Brenau_2

New Line.l(r:p1ulv17972-udt8647lv) Units=km Length=0.014953600000000001 bus1=udt8647lv.1.2 bus2=p1ulv17972.1.2 switch=n enabled=y phases=2 Linecode=1P_UG_AL_1/0_Brenau_2

New Line.l(r:p1ulv17963-udm31019) Units=km Length=0.028287600000000003 bus1=udm31019.1.2 bus2=p1ulv17963.1.2 switch=n enabled=y phases=2 Linecode=1P_UG_AL_1/0_Brenau_2

New Line.l(r:p1ulv17961-udm31018) Units=km Length=0.030920700000000002 bus1=udm31018.1.2 bus2=p1ulv17961.1.2 switch=n enabled=y phases=2 Linecode=1P_OH_AL_4/0_Zuzara_2

New Line.l(r:udm31018-udm31019) Units=km Length=0.0308076 bus1=udm31019.1.2 bus2=udm31018.1.2 switch=n enabled=y phases=2 Linecode=1P_OH_AL_4/0_Zuzara_2

New Line.l(r:udm31019-udt8647lv) Units=km Length=0.00967402 bus1=udt8647lv.1.2 bus2=udm31019.1.2 switch=n enabled=y phases=2 Linecode=1P_UG_AL_1/0_Brenau_2

New Line.l(r:p1ulv17966-udm31020) Units=km Length=0.0148184 bus1=udm31020.1.2 bus2=p1ulv17966.1.2 switch=n enabled=y phases=2 Linecode=1P_UG_AL_1/0_Brenau_2

New Line.l(r:p1ulv17970-udm31020) Units=km Length=0.0132936 bus1=udm31020.1.2 bus2=p1ulv17970.1.2 switch=n enabled=y phases=2 Linecode=1P_UG_AL_1/0_Brenau_2

New Line.l(r:p1ulv17969-udm31022) Units=km Length=0.0128888 bus1=udm31022.1.2 bus2=p1ulv17969.1.2 switch=n enabled=y phases=2 Linecode=1P_UG_AL_1/0_Brenau_2

New Line.l(r:udm31020-udm31022) Units=km Length=0.00968147 bus1=udm31020.1.2 bus2=udm31022.1.2 switch=n enabled=y phases=2 Linecode=1P_UG_AL_1/0_Brenau_2

New Line.l(r:udm31020-udt8647lv) Units=km Length=0.00968069 bus1=udt8647lv.1.2 bus2=udm31020.1.2 switch=n enabled=y phases=2 Linecode=1P_UG_AL_1/0_Brenau_2

New Line.l(r:p1ulv17973-udt8648lv) Units=km Length=0.0107807 bus1=udt8648lv.1.2 bus2=p1ulv17973.1.2 switch=n enabled=y phases=2 Linecode=1P_UG_AL_1/0_Brenau_2

New Line.l(r:p1ulv17978-udt8648lv) Units=km Length=0.0281962 bus1=udt8648lv.1.2 bus2=p1ulv17978.1.2 switch=n enabled=y phases=2 Linecode=1P_UG_AL_1/0_Brenau_2

New Line.l(r:p1ulv17979-udt8648lv) Units=km Length=0.0334046 bus1=udt8648lv.1.2 bus2=p1ulv17979.1.2 switch=n enabled=y phases=2 Linecode=1P_UG_AL_1/0_Brenau_2

New Line.l(r:p1ulv17980-udt8648lv) Units=km Length=0.0390363 bus1=udt8648lv.1.2 bus2=p1ulv17980.1.2 switch=n enabled=y phases=2 Linecode=1P_UG_AL_1/0_Brenau_2

New Line.l(r:p1ulv17964-udm31026) Units=km Length=0.0149 bus1=udm31026.1.2 bus2=p1ulv17964.1.2 switch=n enabled=y phases=2 Linecode=1P_UG_AL_1/0_Brenau_2

New Line.l(r:p1ulv17968-udm31026) Units=km Length=0.0120202 bus1=udm31026.1.2 bus2=p1ulv17968.1.2 switch=n enabled=y phases=2 Linecode=1P_UG_AL_1/0_Brenau_2

New Line.l(r:udm31026-udt8648lv) Units=km Length=0.00967402 bus1=udt8648lv.1.2 bus2=udm31026.1.2 switch=n enabled=y phases=2 Linecode=1P_UG_AL_1/0_Brenau_2

New Line.l(r:p1ulv17981-udm31032) Units=km Length=0.04418190000000001 bus1=udm31032.1.2 bus2=p1ulv17981.1.2 switch=n enabled=y phases=2 Linecode=1P_UG_AL_1/0_Brenau_2

New Line.l(r:udm31032-udt8648lv) Units=km Length=0.00811423 bus1=udt8648lv.1.2 bus2=udm31032.1.2 switch=n enabled=y phases=2 Linecode=1P_UG_AL_1/0_Brenau_2

New Line.l(r:p1ulv18000-udt8649lv) Units=km Length=0.0143445 bus1=udt8649lv.1.2 bus2=p1ulv18000.1.2 switch=n enabled=y phases=2 Linecode=1P_UG_AL_1/0_Brenau_2

New Line.l(r:p1ulv17994-udm31033) Units=km Length=0.014335 bus1=udm31033.1.2 bus2=p1ulv17994.1.2 switch=n enabled=y phases=2 Linecode=1P_UG_AL_1/0_Brenau_2

New Line.l(r:udm31033-udt8649lv) Units=km Length=0.00921358 bus1=udt8649lv.1.2 bus2=udm31033.1.2 switch=n enabled=y phases=2 Linecode=1P_UG_AL_1/0_Brenau_2

New Line.l(r:p1ulv18018-udm31035) Units=km Length=0.0425199 bus1=udm31035.1.2 bus2=p1ulv18018.1.2 switch=n enabled=y phases=2 Linecode=1P_UG_AL_1/0_Brenau_2

New Line.l(r:udm31035-udt8649lv) Units=km Length=0.043361 bus1=udt8649lv.1.2 bus2=udm31035.1.2 switch=n enabled=y phases=2 Linecode=1P_UG_AL_1/0_Brenau_2

New Line.l(r:p1ulv17996-udt8650lv) Units=km Length=0.0157235 bus1=udt8650lv.1.2 bus2=p1ulv17996.1.2 switch=n enabled=y phases=2 Linecode=1P_UG_AL_1/0_Brenau_2

New Line.l(r:p1ulv17998-udt8650lv) Units=km Length=0.0160938 bus1=udt8650lv.1.2 bus2=p1ulv17998.1.2 switch=n enabled=y phases=2 Linecode=1P_UG_AL_1/0_Brenau_2

New Line.l(r:p1ulv17999-udt8650lv) Units=km Length=0.0218196 bus1=udt8650lv.1.2 bus2=p1ulv17999.1.2 switch=n enabled=y phases=2 Linecode=1P_UG_AL_1/0_Brenau_2

New Line.l(r:p1ulv18004-udt8650lv) Units=km Length=0.0173056 bus1=udt8650lv.1.2 bus2=p1ulv18004.1.2 switch=n enabled=y phases=2 Linecode=1P_UG_AL_1/0_Brenau_2

New Line.l(r:p1ulv18010-udt8650lv) Units=km Length=0.0528984 bus1=udt8650lv.1.2 bus2=p1ulv18010.1.2 switch=n enabled=y phases=2 Linecode=1P_UG_AL_1/0_Brenau_2

New Line.l(r:p1ulv18012-udt8650lv) Units=km Length=0.055415900000000004 bus1=udt8650lv.1.2 bus2=p1ulv18012.1.2 switch=n enabled=y phases=2 Linecode=1P_UG_AL_1/0_Brenau_2

New Line.l(r:p1ulv18013-udt8650lv) Units=km Length=0.0470114 bus1=udt8650lv.1.2 bus2=p1ulv18013.1.2 switch=n enabled=y phases=2 Linecode=1P_UG_AL_1/0_Brenau_2

New Line.l(r:p1ulv18034-udt8651lv) Units=km Length=0.0271441 bus1=udt8651lv.1.2 bus2=p1ulv18034.1.2 switch=n enabled=y phases=2 Linecode=1P_UG_AL_1/0_Brenau_2

New Line.l(r:p1ulv18035-udt8651lv) Units=km Length=0.0321591 bus1=udt8651lv.1.2 bus2=p1ulv18035.1.2 switch=n enabled=y phases=2 Linecode=1P_UG_AL_1/0_Brenau_2

New Line.l(r:p1ulv18036-udt8651lv) Units=km Length=0.0262232 bus1=udt8651lv.1.2 bus2=p1ulv18036.1.2 switch=n enabled=y phases=2 Linecode=1P_UG_AL_1/0_Brenau_2

New Line.l(r:p1ulv18037-udt8651lv) Units=km Length=0.0196824 bus1=udt8651lv.1.2 bus2=p1ulv18037.1.2 switch=n enabled=y phases=2 Linecode=1P_UG_AL_1/0_Brenau_2

New Line.l(r:p1ulv18021-udm31044) Units=km Length=0.035002 bus1=udm31044.1.2 bus2=p1ulv18021.1.2 switch=n enabled=y phases=2 Linecode=1P_UG_AL_1/0_Brenau_2

New Line.l(r:p1ulv18053-udm31052) Units=km Length=0.00715336 bus1=udm31052.1.2 bus2=p1ulv18053.1.2 switch=n enabled=y phases=2 Linecode=1P_UG_AL_1/0_Brenau_2

New Line.l(r:p1ulv18001-udm31043) Units=km Length=0.010821000000000002 bus1=udm31043.1.2 bus2=p1ulv18001.1.2 switch=n enabled=y phases=2 Linecode=1P_UG_AL_1/0_Brenau_2

New Line.l(r:udm31043-udm31052) Units=km Length=0.0107572 bus1=udm31052.1.2 bus2=udm31043.1.2 switch=n enabled=y phases=2 Linecode=1P_UG_AL_1/0_Brenau_2

New Line.l(r:udm31044-udm31052) Units=km Length=0.00534809 bus1=udm31044.1.2 bus2=udm31052.1.2 switch=n enabled=y phases=2 Linecode=1P_UG_AL_1/0_Brenau_2

New Line.l(r:udm31044-udt8651lv) Units=km Length=0.009061490000000002 bus1=udt8651lv.1.2 bus2=udm31044.1.2 switch=n enabled=y phases=2 Linecode=1P_UG_AL_2/0_Converse_2

New Line.l(r:p1ulv18052-udm31051) Units=km Length=0.0106727 bus1=udm31051.1.2 bus2=p1ulv18052.1.2 switch=n enabled=y phases=2 Linecode=1P_UG_AL_1/0_Brenau_2

New Line.l(r:p1ulv18040-udm31049) Units=km Length=0.0175408 bus1=udm31049.1.2 bus2=p1ulv18040.1.2 switch=n enabled=y phases=2 Linecode=1P_UG_AL_1/0_Brenau_2

New Line.l(r:p1ulv18050-udm31049) Units=km Length=0.0105611 bus1=udm31049.1.2 bus2=p1ulv18050.1.2 switch=n enabled=y phases=2 Linecode=1P_UG_AL_1/0_Brenau_2

New Line.l(r:udm31049-udm31051) Units=km Length=0.00906388 bus1=udm31051.1.2 bus2=udm31049.1.2 switch=n enabled=y phases=2 Linecode=1P_UG_AL_2/0_Converse_2

New Line.l(r:udm31051-udt8651lv) Units=km Length=0.00907333 bus1=udt8651lv.1.2 bus2=udm31051.1.2 switch=n enabled=y phases=2 Linecode=1P_UG_AL_4/0_Sweetbriar_2

New Line.l(r:p1ulv18054-udt8652lv) Units=km Length=0.0152371 bus1=udt8652lv.1.2 bus2=p1ulv18054.1.2 switch=n enabled=y phases=2 Linecode=1P_UG_AL_1/0_Brenau_2

New Line.l(r:p1ulv18058-udt8652lv) Units=km Length=0.0128484 bus1=udt8652lv.1.2 bus2=p1ulv18058.1.2 switch=n enabled=y phases=2 Linecode=1P_UG_AL_1/0_Brenau_2

New Line.l(r:p1ulv18055-udm31056) Units=km Length=0.0149747 bus1=udm31056.1.2 bus2=p1ulv18055.1.2 switch=n enabled=y phases=2 Linecode=1P_UG_AL_1/0_Brenau_2

New Line.l(r:p1ulv18060-udm31056) Units=km Length=0.0126318 bus1=udm31056.1.2 bus2=p1ulv18060.1.2 switch=n enabled=y phases=2 Linecode=1P_UG_AL_1/0_Brenau_2

New Line.l(r:p1ulv18057-udm31057) Units=km Length=0.0151193 bus1=udm31057.1.2 bus2=p1ulv18057.1.2 switch=n enabled=y phases=2 Linecode=1P_UG_AL_1/0_Brenau_2

New Line.l(r:p1ulv18062-udm31057) Units=km Length=0.0130069 bus1=udm31057.1.2 bus2=p1ulv18062.1.2 switch=n enabled=y phases=2 Linecode=1P_UG_AL_1/0_Brenau_2

New Line.l(r:p1ulv18063-udm31057) Units=km Length=0.0136753 bus1=udm31057.1.2 bus2=p1ulv18063.1.2 switch=n enabled=y phases=2 Linecode=1P_UG_AL_1/0_Brenau_2

New Line.l(r:udm31056-udm31057) Units=km Length=0.0098437 bus1=udm31056.1.2 bus2=udm31057.1.2 switch=n enabled=y phases=2 Linecode=1P_UG_AL_1/0_Brenau_2

New Line.l(r:udm31056-udt8652lv) Units=km Length=0.00985142 bus1=udt8652lv.1.2 bus2=udm31056.1.2 switch=n enabled=y phases=2 Linecode=1P_UG_AL_4/0_Sweetbriar_2

New Line.l(r:p1ulv18059-udm31059) Units=km Length=0.0125779 bus1=udm31059.1.2 bus2=p1ulv18059.1.2 switch=n enabled=y phases=2 Linecode=1P_UG_AL_1/0_Brenau_2

New Line.l(r:p1ulv18003-udm31054) Units=km Length=0.0166931 bus1=udm31054.1.2 bus2=p1ulv18003.1.2 switch=n enabled=y phases=2 Linecode=1P_UG_AL_1/0_Brenau_2

New Line.l(r:p1ulv18002-udm31053) Units=km Length=0.0172505 bus1=udm31053.1.2 bus2=p1ulv18002.1.2 switch=n enabled=y phases=2 Linecode=1P_UG_AL_1/0_Brenau_2

New Line.l(r:udm31053-udm31054) Units=km Length=0.00984164 bus1=udm31054.1.2 bus2=udm31053.1.2 switch=n enabled=y phases=2 Linecode=1P_UG_AL_1/0_Brenau_2

New Line.l(r:udm31054-udm31059) Units=km Length=0.00985349 bus1=udm31059.1.2 bus2=udm31054.1.2 switch=n enabled=y phases=2 Linecode=1P_UG_AL_1/0_Brenau_2

New Line.l(r:udm31059-udt8652lv) Units=km Length=0.0098437 bus1=udt8652lv.1.2 bus2=udm31059.1.2 switch=n enabled=y phases=2 Linecode=1P_UG_AL_2/0_Converse_2

New Line.l(r:p1ulv18006-udt8653lv) Units=km Length=0.0920497 bus1=udt8653lv.1.2 bus2=p1ulv18006.1.2 switch=n enabled=y phases=2 Linecode=1P_UG_AL_1/0_Brenau_2

New Line.l(r:p1ulv18007-udt8653lv) Units=km Length=0.0940112 bus1=udt8653lv.1.2 bus2=p1ulv18007.1.2 switch=n enabled=y phases=2 Linecode=1P_UG_AL_1/0_Brenau_2

New Line.l(r:p1ulv18008-udt8653lv) Units=km Length=0.0843088 bus1=udt8653lv.1.2 bus2=p1ulv18008.1.2 switch=n enabled=y phases=2 Linecode=1P_UG_AL_1/0_Brenau_2

New Line.l(r:p1ulv18009-udt8653lv) Units=km Length=0.0819814 bus1=udt8653lv.1.2 bus2=p1ulv18009.1.2 switch=n enabled=y phases=2 Linecode=1P_UG_AL_1/0_Brenau_2

New Line.l(r:p1ulv18011-udt8653lv) Units=km Length=0.0605454 bus1=udt8653lv.1.2 bus2=p1ulv18011.1.2 switch=n enabled=y phases=2 Linecode=1P_UG_AL_1/0_Brenau_2

New Line.l(r:p1ulv18015-udm31068) Units=km Length=0.113073 bus1=udm31068.1.2 bus2=p1ulv18015.1.2 switch=n enabled=y phases=2 Linecode=1P_UG_AL_1/0_Brenau_2

New Line.l(r:p1ulv18016-udm31068) Units=km Length=0.10572 bus1=udm31068.1.2 bus2=p1ulv18016.1.2 switch=n enabled=y phases=2 Linecode=1P_UG_AL_1/0_Brenau_2

New Line.l(r:udm31068-udt8653lv) Units=km Length=0.0617901 bus1=udt8653lv.1.2 bus2=udm31068.1.2 switch=n enabled=y phases=2 Linecode=1P_UG_AL_1/0_Brenau_2

New Line.l(r:p1ulv18025-udt8654lv) Units=km Length=0.0839771 bus1=udt8654lv.1.2 bus2=p1ulv18025.1.2 switch=n enabled=y phases=2 Linecode=1P_OH_AL_4/0_Zuzara_2

New Line.l(r:p1ulv18027-udt8654lv) Units=km Length=0.0644104 bus1=udt8654lv.1.2 bus2=p1ulv18027.1.2 switch=n enabled=y phases=2 Linecode=1P_OH_AL_4/0_Zuzara_2

New Line.l(r:p1ulv18028-udt8654lv) Units=km Length=0.0689499 bus1=udt8654lv.1.2 bus2=p1ulv18028.1.2 switch=n enabled=y phases=2 Linecode=1P_OH_AL_4/0_Zuzara_2

New Line.l(r:p1ulv18014-udm31070) Units=km Length=0.112321 bus1=udm31070.1.2 bus2=p1ulv18014.1.2 switch=n enabled=y phases=2 Linecode=1P_UG_AL_1/0_Brenau_2

New Line.l(r:p1ulv18022-udm31070) Units=km Length=0.0801712 bus1=udm31070.1.2 bus2=p1ulv18022.1.2 switch=n enabled=y phases=2 Linecode=1P_UG_AL_1/0_Brenau_2

New Line.l(r:p1ulv18023-udm31070) Units=km Length=0.0888672 bus1=udm31070.1.2 bus2=p1ulv18023.1.2 switch=n enabled=y phases=2 Linecode=1P_UG_AL_1/0_Brenau_2

New Line.l(r:p1ulv18024-udm31070) Units=km Length=0.0930903 bus1=udm31070.1.2 bus2=p1ulv18024.1.2 switch=n enabled=y phases=2 Linecode=1P_UG_AL_1/0_Brenau_2

New Line.l(r:udm31070-udt8654lv) Units=km Length=0.0174641 bus1=udt8654lv.1.2 bus2=udm31070.1.2 switch=n enabled=y phases=2 Linecode=1P_OH_AL_2/0_Rucina_2

New Line.l(r:p1ulv18017-udt8655lv) Units=km Length=0.10580000000000002 bus1=udt8655lv.1.2 bus2=p1ulv18017.1.2 switch=n enabled=y phases=2 Linecode=1P_UG_AL_1/0_Brenau_2

New Line.l(r:p1ulv18019-udt8655lv) Units=km Length=0.0460835 bus1=udt8655lv.1.2 bus2=p1ulv18019.1.2 switch=n enabled=y phases=2 Linecode=1P_UG_AL_1/0_Brenau_2

New Line.l(r:p1ulv18020-udt8655lv) Units=km Length=0.039309 bus1=udt8655lv.1.2 bus2=p1ulv18020.1.2 switch=n enabled=y phases=2 Linecode=1P_UG_AL_1/0_Brenau_2

New Line.l(r:p1ulv18026-udt8656lv) Units=km Length=0.0562878 bus1=udt8656lv.1.2 bus2=p1ulv18026.1.2 switch=n enabled=y phases=2 Linecode=1P_OH_AL_4/0_Zuzara_2

New Line.l(r:p1ulv18030-udt8656lv) Units=km Length=0.0328987 bus1=udt8656lv.1.2 bus2=p1ulv18030.1.2 switch=n enabled=y phases=2 Linecode=1P_OH_AL_4/0_Zuzara_2

New Line.l(r:p1ulv18032-udt8656lv) Units=km Length=0.0441776 bus1=udt8656lv.1.2 bus2=p1ulv18032.1.2 switch=n enabled=y phases=2 Linecode=1P_OH_AL_4/0_Zuzara_2

New Line.l(r:p1ulv18033-udt8656lv) Units=km Length=0.0380452 bus1=udt8656lv.1.2 bus2=p1ulv18033.1.2 switch=n enabled=y phases=2 Linecode=1P_OH_AL_4/0_Zuzara_2

New Line.l(r:p1ulv18029-udm31081) Units=km Length=0.0606169 bus1=udm31081.1.2 bus2=p1ulv18029.1.2 switch=n enabled=y phases=2 Linecode=1P_OH_AL_4/0_Zuzara_2

New Line.l(r:udm31081-udt8656lv) Units=km Length=0.0174517 bus1=udt8656lv.1.2 bus2=udm31081.1.2 switch=n enabled=y phases=2 Linecode=1P_OH_AL_2/0_Rucina_2

New Line.l(r:p1ulv18031-udm31083) Units=km Length=0.0381354 bus1=udm31083.1.2 bus2=p1ulv18031.1.2 switch=n enabled=y phases=2 Linecode=1P_UG_AL_1/0_Brenau_2

New Line.l(r:udm31083-udt8656lv) Units=km Length=0.0174641 bus1=udt8656lv.1.2 bus2=udm31083.1.2 switch=n enabled=y phases=2 Linecode=1P_OH_AL_2/0_Rucina_2

New Line.l(r:p1ulv18069-udt8657lv) Units=km Length=0.0154081 bus1=udt8657lv.1.2 bus2=p1ulv18069.1.2 switch=n enabled=y phases=2 Linecode=1P_UG_AL_1/0_Brenau_2

New Line.l(r:p1ulv18071-udt8657lv) Units=km Length=0.0115515 bus1=udt8657lv.1.2 bus2=p1ulv18071.1.2 switch=n enabled=y phases=2 Linecode=1P_UG_AL_1/0_Brenau_2

New Line.l(r:p1ulv18042-udm31086) Units=km Length=0.0200908 bus1=udm31086.1.2 bus2=p1ulv18042.1.2 switch=n enabled=y phases=2 Linecode=1P_UG_AL_1/0_Brenau_2

New Line.l(r:p1ulv18043-udm31086) Units=km Length=0.013696200000000002 bus1=udm31086.1.2 bus2=p1ulv18043.1.2 switch=n enabled=y phases=2 Linecode=1P_UG_AL_1/0_Brenau_2

New Line.l(r:p1ulv18044-udm31086) Units=km Length=0.00820101 bus1=udm31086.1.2 bus2=p1ulv18044.1.2 switch=n enabled=y phases=2 Linecode=1P_UG_AL_1/0_Brenau_2

New Line.l(r:p1ulv18045-udm31086) Units=km Length=0.007267920000000001 bus1=udm31086.1.2 bus2=p1ulv18045.1.2 switch=n enabled=y phases=2 Linecode=1P_UG_AL_1/0_Brenau_2

New Line.l(r:p1ulv18047-udm31086) Units=km Length=0.0120744 bus1=udm31086.1.2 bus2=p1ulv18047.1.2 switch=n enabled=y phases=2 Linecode=1P_UG_AL_1/0_Brenau_2

New Line.l(r:udm31086-udt8657lv) Units=km Length=0.00888946 bus1=udt8657lv.1.2 bus2=udm31086.1.2 switch=n enabled=y phases=2 Linecode=1P_UG_AL_4/0_Sweetbriar_2

New Line.l(r:p1ulv18068-udm31092) Units=km Length=0.0149538 bus1=udm31092.1.2 bus2=p1ulv18068.1.2 switch=n enabled=y phases=2 Linecode=1P_UG_AL_1/0_Brenau_2

New Line.l(r:p1ulv18070-udm31092) Units=km Length=0.011811 bus1=udm31092.1.2 bus2=p1ulv18070.1.2 switch=n enabled=y phases=2 Linecode=1P_UG_AL_1/0_Brenau_2

New Line.l(r:p1ulv18067-udm31091) Units=km Length=0.014646300000000001 bus1=udm31091.1.2 bus2=p1ulv18067.1.2 switch=n enabled=y phases=2 Linecode=1P_UG_AL_1/0_Brenau_2

New Line.l(r:p1ulv18073-udm31091) Units=km Length=0.0122325 bus1=udm31091.1.2 bus2=p1ulv18073.1.2 switch=n enabled=y phases=2 Linecode=1P_UG_AL_1/0_Brenau_2

New Line.l(r:udm31091-udm31092) Units=km Length=0.00888946 bus1=udm31092.1.2 bus2=udm31091.1.2 switch=n enabled=y phases=2 Linecode=1P_UG_AL_1/0_Brenau_2

New Line.l(r:udm31092-udt8657lv) Units=km Length=0.00887979 bus1=udt8657lv.1.2 bus2=udm31092.1.2 switch=n enabled=y phases=2 Linecode=1P_UG_AL_4/0_Sweetbriar_2

New Line.l(r:p1ulv18065-udt8658lv) Units=km Length=0.0145947 bus1=udt8658lv.1.2 bus2=p1ulv18065.1.2 switch=n enabled=y phases=2 Linecode=1P_UG_AL_1/0_Brenau_2

New Line.l(r:p1ulv18074-udt8658lv) Units=km Length=0.0126878 bus1=udt8658lv.1.2 bus2=p1ulv18074.1.2 switch=n enabled=y phases=2 Linecode=1P_UG_AL_1/0_Brenau_2

New Line.l(r:p1ulv18064-udm31097) Units=km Length=0.0141785 bus1=udm31097.1.2 bus2=p1ulv18064.1.2 switch=n enabled=y phases=2 Linecode=1P_UG_AL_1/0_Brenau_2

New Line.l(r:p1ulv18075-udm31097) Units=km Length=0.0130397 bus1=udm31097.1.2 bus2=p1ulv18075.1.2 switch=n enabled=y phases=2 Linecode=1P_UG_AL_1/0_Brenau_2

New Line.l(r:udm31097-udt8658lv) Units=km Length=0.00888946 bus1=udt8658lv.1.2 bus2=udm31097.1.2 switch=n enabled=y phases=2 Linecode=1P_UG_AL_1/0_Brenau_2

New Line.l(r:p1ulv18077-udt8659lv) Units=km Length=0.019028700000000003 bus1=udt8659lv.1.2 bus2=p1ulv18077.1.2 switch=n enabled=y phases=2 Linecode=1P_UG_AL_1/0_Brenau_2

New Line.l(r:p1ulv18086-udt8659lv) Units=km Length=0.015774 bus1=udt8659lv.1.2 bus2=p1ulv18086.1.2 switch=n enabled=y phases=2 Linecode=1P_UG_AL_1/0_Brenau_2

New Line.l(r:p1ulv18076-udm31101) Units=km Length=0.0192141 bus1=udm31101.1.2 bus2=p1ulv18076.1.2 switch=n enabled=y phases=2 Linecode=1P_UG_AL_1/0_Brenau_2

New Line.l(r:p1ulv18079-udm31101) Units=km Length=0.0137274 bus1=udm31101.1.2 bus2=p1ulv18079.1.2 switch=n enabled=y phases=2 Linecode=1P_UG_AL_1/0_Brenau_2

New Line.l(r:p1ulv18080-udm31101) Units=km Length=0.0102493 bus1=udm31101.1.2 bus2=p1ulv18080.1.2 switch=n enabled=y phases=2 Linecode=1P_UG_AL_1/0_Brenau_2

New Line.l(r:p1ulv18081-udm31101) Units=km Length=0.00969054 bus1=udm31101.1.2 bus2=p1ulv18081.1.2 switch=n enabled=y phases=2 Linecode=1P_UG_AL_1/0_Brenau_2

New Line.l(r:p1ulv18083-udm31101) Units=km Length=0.0107961 bus1=udm31101.1.2 bus2=p1ulv18083.1.2 switch=n enabled=y phases=2 Linecode=1P_UG_AL_1/0_Brenau_2

New Line.l(r:p1ulv18084-udm31101) Units=km Length=0.0155676 bus1=udm31101.1.2 bus2=p1ulv18084.1.2 switch=n enabled=y phases=2 Linecode=1P_UG_AL_1/0_Brenau_2

New Line.l(r:p1ulv18085-udm31101) Units=km Length=0.018086300000000003 bus1=udm31101.1.2 bus2=p1ulv18085.1.2 switch=n enabled=y phases=2 Linecode=1P_UG_AL_1/0_Brenau_2

New Line.l(r:udm31101-udt8659lv) Units=km Length=0.00902205 bus1=udt8659lv.1.2 bus2=udm31101.1.2 switch=n enabled=y phases=2 Linecode=1P_UG_AL_4/0_Sweetbriar_2

New Line.l(r:p1ulv18087-udm31110) Units=km Length=0.0180064 bus1=udm31110.1.2 bus2=p1ulv18087.1.2 switch=n enabled=y phases=2 Linecode=1P_UG_AL_1/0_Brenau_2

New Line.l(r:p1ulv18088-udm31110) Units=km Length=0.0156607 bus1=udm31110.1.2 bus2=p1ulv18088.1.2 switch=n enabled=y phases=2 Linecode=1P_UG_AL_1/0_Brenau_2

New Line.l(r:p1ulv18089-udm31112) Units=km Length=0.0171774 bus1=udm31112.1.2 bus2=p1ulv18089.1.2 switch=n enabled=y phases=2 Linecode=1P_UG_AL_1/0_Brenau_2

New Line.l(r:p1ulv18090-udm31113) Units=km Length=0.0154806 bus1=udm31113.1.2 bus2=p1ulv18090.1.2 switch=n enabled=y phases=2 Linecode=1P_UG_AL_1/0_Brenau_2

New Line.l(r:p1ulv22223-udm31114) Units=km Length=0.023451100000000002 bus1=udm31114.1.2 bus2=p1ulv22223.1.2 switch=n enabled=y phases=2 Linecode=1P_OH_AL_2/0_Rucina_2

New Line.l(r:udm31113-udm31114) Units=km Length=0.0774198 bus1=udm31113.1.2 bus2=udm31114.1.2 switch=n enabled=y phases=2 Linecode=1P_OH_AL_4/0_Zuzara_2

New Line.l(r:udm31112-udm31113) Units=km Length=0.00903467 bus1=udm31112.1.2 bus2=udm31113.1.2 switch=n enabled=y phases=2 Linecode=1P_UG_AL_1/0_Brenau_2

New Line.l(r:udm31110-udm31112) Units=km Length=0.00902518 bus1=udm31110.1.2 bus2=udm31112.1.2 switch=n enabled=y phases=2 Linecode=1P_UG_AL_2/0_Converse_2

New Line.l(r:udm31110-udt8659lv) Units=km Length=0.00902518 bus1=udt8659lv.1.2 bus2=udm31110.1.2 switch=n enabled=y phases=2 Linecode=1P_UG_AL_4/0_Sweetbriar_2

New Line.l(r:p1ulv18093-udt8660lv) Units=km Length=0.0229404 bus1=udt8660lv.1.2 bus2=p1ulv18093.1.2 switch=n enabled=y phases=2 Linecode=1P_UG_AL_1/0_Brenau_2

New Line.l(r:p1ulv18092-udm31115) Units=km Length=0.0226918 bus1=udm31115.1.2 bus2=p1ulv18092.1.2 switch=n enabled=y phases=2 Linecode=1P_UG_AL_1/0_Brenau_2

New Line.l(r:udm31115-udt8660lv) Units=km Length=0.00825321 bus1=udt8660lv.1.2 bus2=udm31115.1.2 switch=n enabled=y phases=2 Linecode=1P_UG_AL_1/0_Brenau_2

New Line.l(r:p1ulv18095-udm31117) Units=km Length=0.0229891 bus1=udm31117.1.2 bus2=p1ulv18095.1.2 switch=n enabled=y phases=2 Linecode=1P_UG_AL_1/0_Brenau_2

...